  90159900734501ZAPSD9                1DIU9532 280623    418
  90159903730201ZAPTBZ                2DIU9532 280623    418
  90159901037901ZAPSDC                3DIU9532 280623    418
  90159900855501ZAPSU7                4DIU9532 280623    418
  90159902208301ZAPSDW                5DIU9532 280623    418
  90159900855401ZAPSU0                6DIU9532 280623    418
  90159902677701ZAPSTG                7DIU9532 280623    418
  90159902381201ZAPT54                1DXG5786 280623    206
  90159902457201ZAPSDY                2DXG5786 280623    206
  90159903868501ZAPTEA                3DXG5786 280623    206
  90159900733501ZAPT28                4DXG5786 280623    206
  90159900733501ZAPSLR                5DXG5786 280623    206
  90159900878801ZAPT47                6DXG5786 280623    206
  90159903925101ZAPSK1                7DXG5786 280623    206
  90159902502201ZAPSE0                8DXG5786 280623    206
  90159902803001ZAPSVS                9DXG5786 280623    206
  90159901349901ZAPSDK               10DXG5786 280623    206
  90159903293301ZAPSKK                1EUG7C14 280623    173
  90159902753801ZAPTC8                2EUG7C14 280623    173
  90159903141201ZAPSKI                3EUG7C14 280623    173
  90159902541801G13349                4EUG7C14 280623    173
  90159900954401ZAPSV0                5EUG7C14 280623    173
  90159904313501ZAPTEZ                1GHO2005 280623    166
  90159903555401G13328                2GHO2005 280623    166
  90159903555401G13343                3GHO2005 280623    166
  90159903481401G13317                4GHO2005 280623    166
  90159902610801ZAPSM0                5GHO2005 280623    166
  90159902609901ZAPSLD                6GHO2005 280623    166
  90159902610701ZAPSLY                7GHO2005 280623    166
  90159903980700ZAPTFV                1AVV4G52 280623    140
  90159902610001ZAPSSE                2AVV4G52 280623    140
  90159902610101ZAPSLH                3AVV4G52 280623    140
  90159902384801ZAPSKY                4AVV4G52 280623    140
  90159904334501G13291                5AVV4G52 280623    140
  90159903897401ZAPSJN                6AVV4G52 280623    140
  90159901153301ZAPSUH                7AVV4G52 280623    140
  90159902610401ZAPSSL                1GAF0278 280623    103
  90159902610201ZAPSSI                2GAF0278 280623    103
  90159904228101ZAPSKV                3GAF0278 280623    103
  90159903612001G13194                4GAF0278 280623    103
  90159903699401ZAPSZO                5GAF0278 280623    103
  90159904085801ZAPSCF                6GAF0278 280623    103
  90159903184001ZAPSHG                7GAF0278 280623    103
  90159900242301ZAPSE4                1DXG5798 280623    183
  90159900242302ZAPSE9                2DXG5798 280623    183
  90159902620601ZAPSEB                3DXG5798 280623    183
  90159903925301ZAPSK3                4DXG5798 280623    183
  90159902443601ZAPSDR                5DXG5798 280623    183
  90159902842501G13366                6DXG5798 280623    183
  90159902443401ZAPSDF                7DXG5798 280623    183
  90159903924901ZAPSJT                8DXG5798 280623    183
  90159900242201ZAPSLO                9DXG5798 280623    183
  90159903715101ZAPTI7                1DBC2B30 280623    507
  90159903410801ZAPTF9                2DBC2B30 280623    507
  90159902424101ZAPSCI                3DBC2B30 280623    507
  90159903325901ZAPSF1                1NTV4C67 280623    762
  90159902329701ZAPSEY                2NTV4C67 280623    762
  90159903814701ZAPTI1                1AJM9056 280623    298
  90159902568901ZAPSK5                2AJM9056 280623    298
  90159903140601ZAPSKC                3AJM9056 280623    298
  90159900242601ZAPSFV                4AJM9056 280623    298
